---- qbsp / ericw-tools v0.18.1 ----
Input file: HigherLower.map
Output file: HigherLower.bsp

---- LoadMapFile ----
*** WARNING 05: No info_player_start entity in level
           48 faces
            8 brushes
            6 entities
            4 unique texnames
           21 texinfo

Opened WAD: D:/GitHub/QuakeMultiplayerMap/wads/prototype_1_2.wad
Processing hull 0...
---- Brush_LoadEntity ----
            8 brushes
           30 planes
---- CSGFaces ----
           48 brushfaces
           50 csgfaces
           50 mergedfaces
---- SolidBSP ----
           68 split nodes
           17 solid leafs
           52 empty leafs
            0 water leafs
            0 detail leafs
            0 detail illusionary leafs
            0 detail fence leafs
            0 illusionary visblocker leafs
          229 leaffaces
          226 nodefaces
---- Portalize ----
           52 vis leafs
           52 vis clusters
          159 vis portals
---- FillOutside ----
*** WARNING 10: Reached occupant at (220 52 108), no filling performed.
Leak file written to HigherLower.pts
---- MakeFaceEdges ----
---- GrowRegions ----
Processing hull 1...
*** WARNING 10: Reached occupant at (220 -116 108), no filling performed.
Processing hull 2...
*** WARNING 10: Reached occupant at (220 -116 108), no filling performed.
---- WriteBSPFile ----
Wrote HigherLower.bsp
           81 planes             1620
          276 vertexes           3312
           68 nodes              1632
           21 texinfo             840
          226 faces              4520
          141 clipnodes          1128
           53 leafs              1484
          229 marksurfaces        458
          904 surfedges          3616
          522 edges              2088
            4 textures          87220
              lightdata             0
              visdata               0
              entdata             400

0.048 seconds elapsed
Peak memory usage: 944366 (0.9M)
